! ANSYS APDL BATCH FILE GENERATED BY NVQLINK FEA ENGINE
/PREP7
! Geometry Definitions
K,1,2.8000,0.0000,0.0000
K,2,2.7637,0.4492,0.0000
K,3,2.6559,0.8867,0.0000
K,4,2.4793,1.3012,0.0000
K,5,2.2384,1.6821,0.0000
K,6,1.9396,2.0194,0.0000
K,7,1.5906,2.3044,0.0000
K,8,1.2003,2.5297,0.0000
K,9,0.7790,2.6895,0.0000
K,10,0.3375,2.7796,0.0000
K,11,-0.1127,2.7977,0.0000
K,12,-0.5601,2.7434,0.0000
K,13,-0.9929,2.6180,0.0000
K,14,-1.4000,2.4249,0.0000
K,15,-1.7708,2.1689,0.0000
K,16,-2.0958,1.8567,0.0000
K,17,-2.3665,1.4965,0.0000
K,18,-2.5759,1.0975,0.0000
K,19,-2.7186,0.6701,0.0000
K,20,-2.7909,0.2253,0.0000
! ... 1980 like lines cut

! Material Properties
MP,EX,1,200E9
MP,PRXY,1,0.3

! Results Data (Commented)
! Max Stress: 27.50 MPa
/SOL
SOLVE
FINISH
