! ANSYS APDL BATCH FILE GENERATED BY NVQLINK FEA ENGINE
/PREP7
! Geometry Definitions
K,1,3.4940,-0.0060,0.0000
K,2,2.9120,2.1761,0.2189
K,3,1.0434,3.5321,0.4379
K,4,-1.2653,3.4691,0.6568
K,5,-3.0256,1.9681,0.8757
K,6,-3.4678,-0.2112,1.0946
K,7,-2.5593,-2.1777,1.3136
K,8,-0.7370,-3.2237,1.5325
K,9,1.3508,-3.0252,1.7514
K,10,2.9513,-1.6821,1.9703
K,11,3.4922,0.4464,2.1893
K,12,2.6007,2.5182,2.4082
K,13,0.5891,3.6491,2.6271
K,14,-1.6955,3.2657,2.8460
K,15,-3.2146,1.5732,3.0650
K,16,-3.3846,-0.6484,3.2839
K,17,-2.2438,-2.4717,3.5028
K,18,-0.3251,-3.2938,3.7217
K,19,1.7373,-2.8352,3.9407
K,20,3.1856,-1.2743,4.1596
! ... 30 like lines cut

! Material Properties
MP,EX,1,200E9
MP,PRXY,1,0.3

! Results Data (Commented)
! Max Stress: 112.64 MPa
/SOL
SOLVE
FINISH
