! ANSYS APDL BATCH FILE GENERATED BY NVQLINK FEA ENGINE
/PREP7
! Geometry Definitions
K,1,3.5017,0.0017,0.0000
K,2,2.9001,2.1643,0.2276
K,3,1.0612,3.5499,0.4551
K,4,-1.2694,3.4650,0.6827
K,5,-3.0144,1.9793,0.9103
K,6,-3.4774,-0.2208,1.1378
K,7,-2.5675,-2.1860,1.3654
K,8,-0.7543,-3.2410,1.5929
K,9,1.3555,-3.0204,1.8205
K,10,2.9538,-1.6796,2.0481
K,11,3.5097,0.4639,2.2756
K,12,2.6066,2.5242,2.5032
K,13,0.5883,3.6482,2.7308
K,14,-1.6963,3.2649,2.9583
K,15,-3.2305,1.5573,3.1859
K,16,-3.3980,-0.6618,3.4134
K,17,-2.2663,-2.4941,3.6410
K,18,-0.3087,-3.2774,3.8686
K,19,1.7262,-2.8463,4.0961
K,20,3.1739,-1.2860,4.3237
! ... 30 like lines cut

! Material Properties
MP,EX,1,200E9
MP,PRXY,1,0.3

! Results Data (Commented)
! Max Stress: 117.08 MPa
/SOL
SOLVE
FINISH
